%nprocshared=16
%mem=32GB
#p opt=(calcfc,ts,noeigentest) freq=noraman 6-31+g(d)
scrf=(smd,solvent=toluene) m062x

title

0 1
 C                 -3.85700900   -0.90434500   -1.64808300
 C                 -4.79897500   -1.83722100   -1.30378400
 C                 -4.86828900   -2.34889900    0.02878100
 C                 -4.01866000   -1.93709400    1.02622100
 H                 -3.78715200   -0.51982700   -2.66156700
 H                 -5.50134400   -2.20660600   -2.04386200
 H                 -5.62503900   -3.09424300    0.25728700
 H                 -4.08436100   -2.33545100    2.03367300
 C                 -3.05227900   -0.95984200    0.68716100
 C                 -2.95370800   -0.45153800   -0.64771800
 N                 -2.12233500   -0.36576600    1.45198600
 H                 -1.88103000   -0.66299500    2.38971200
 C                 -1.89011400    0.45825000   -0.65745000
 C                 -1.41613900    1.38473700   -1.70594700
 C                 -1.33828700    2.80905600   -1.07028800
 C                 -1.10394100    1.97892100    1.19901300
 C                 -1.30308800    0.50040500    0.65983400
 H                 -2.06518300    1.36968500   -2.58707300
 H                 -0.39615700    1.10877600   -2.00221400
 H                 -2.35247100    3.17437600   -0.86796500
 H                 -0.87214700    3.49099400   -1.78610000
 H                 -2.10828100    2.33583600    1.46570100
 C                 -0.19870500    1.99536700    2.41966200
 H                 -0.12826700    3.01360500    2.81309300
 H                  0.80528000    1.64753000    2.15508600
 N                 -0.57451800    2.82283200    0.15863000
 H                  0.38785000    2.53199100   -0.04046200
 C                  2.01061600    0.10947600   -0.00960300
 O                  1.73580200    1.17663700   -0.59702100
 O                  1.19744300   -0.58563100    0.68038900
 H                 -0.19343400    0.04641800    0.61283000
 H                 -0.58783300    1.34670300    3.21236500
 C                  3.42737100   -0.42329400   -0.11099000
 C                  3.78445400   -1.62203700    0.51125000
 C                  4.38755800    0.29122700   -0.83137800
 C                  5.08888800   -2.10299700    0.41282000
 H                  3.02847400   -2.16683700    1.06817700
 C                  5.69228200   -0.18791900   -0.93040000
 H                  4.09349600    1.22143500   -1.30797600
 C                  6.04486000   -1.38627100   -0.30804200
 H                  5.36112500   -3.03640900    0.89822800
 H                  6.43525300    0.37229500   -1.49173600
 H                  7.06221300   -1.76069000   -0.38481400

